56
Molecula
  C   5.000000e+00  1.746788e+01  0.000000e+00
  C   5.000000e+00  6.101000e+00  0.000000e+00
  C   5.000000e+00  6.811430e+00  1.230501e+00
  C   5.000000e+00  8.232290e+00  1.230501e+00
  C   5.000000e+00  8.942720e+00  0.000000e+00
  C   5.000000e+00  1.036358e+01  0.000000e+00
  C   5.000000e+00  1.107401e+01  1.230501e+00
  C   5.000000e+00  1.249487e+01  1.230501e+00
  C   5.000000e+00  1.320530e+01  0.000000e+00
  C   5.000000e+00  1.462616e+01  0.000000e+00
  C   5.000000e+00  1.533659e+01  1.230501e+00
  C   5.000000e+00  1.675745e+01  1.230501e+00
  H   5.000000e+00  1.856888e+01  0.000000e+00
  H   5.000000e+00  5.000000e+00  0.000000e+00
  C   5.000000e+00  1.746788e+01  2.461002e+00
  C   5.000000e+00  6.101000e+00  2.461002e+00
  C   5.000000e+00  6.811430e+00  3.691503e+00
  C   5.000000e+00  8.232290e+00  3.691503e+00
  C   5.000000e+00  8.942720e+00  2.461002e+00
  C   5.000000e+00  1.036358e+01  2.461002e+00
  C   5.000000e+00  1.107401e+01  3.691503e+00
  C   5.000000e+00  1.249487e+01  3.691503e+00
  C   5.000000e+00  1.320530e+01  2.461002e+00
  C   5.000000e+00  1.462616e+01  2.461002e+00
  C   5.000000e+00  1.533659e+01  3.691503e+00
  C   5.000000e+00  1.675745e+01  3.691503e+00
  H   5.000000e+00  1.856888e+01  2.461002e+00
  H   5.000000e+00  5.000000e+00  2.461002e+00
  C   5.000000e+00  1.746788e+01  4.922003e+00
  C   5.000000e+00  6.101000e+00  4.922003e+00
  C   5.000000e+00  6.811430e+00  6.152504e+00
  C   5.000000e+00  8.232290e+00  6.152504e+00
  C   5.000000e+00  8.942720e+00  4.922003e+00
  C   5.000000e+00  1.036358e+01  4.922003e+00
  C   5.000000e+00  1.107401e+01  6.152504e+00
  C   5.000000e+00  1.249487e+01  6.152504e+00
  C   5.000000e+00  1.320530e+01  4.922003e+00
  C   5.000000e+00  1.462616e+01  4.922003e+00
  C   5.000000e+00  1.533659e+01  6.152504e+00
  C   5.000000e+00  1.675745e+01  6.152504e+00
  H   5.000000e+00  1.856888e+01  4.922003e+00
  H   5.000000e+00  5.000000e+00  4.922003e+00
  C   5.000000e+00  1.746788e+01  7.383005e+00
  C   5.000000e+00  6.101000e+00  7.383005e+00
  C   5.000000e+00  6.811430e+00  8.613506e+00
  C   5.000000e+00  8.232290e+00  8.613506e+00
  C   5.000000e+00  8.942720e+00  7.383005e+00
  C   5.000000e+00  1.036358e+01  7.383005e+00
  C   5.000000e+00  1.107401e+01  8.613506e+00
  C   5.000000e+00  1.249487e+01  8.613506e+00
  C   5.000000e+00  1.320530e+01  7.383005e+00
  C   5.000000e+00  1.462616e+01  7.383005e+00
  C   5.000000e+00  1.533659e+01  8.613506e+00
  C   5.000000e+00  1.675745e+01  8.613506e+00
  H   5.000000e+00  1.856888e+01  7.383005e+00
  H   5.000000e+00  5.000000e+00  7.383005e+00
